/batch
/config,noeldb,1     ! force off writing results to database
*get,_wallstrt,active,,time,wall
! ANSYS input file written by Workbench version 2023 R2
! File used for geometry attach: C:\Users\niaz ahmad\Desktop\kevin\ansys\project1_files\dp0\SYS\DM\SYS.agdb
/title,project1--Static Structural (A5)
! ****** Begin Custom Load Command Snippet ******
/COM, ACT Extensions:
/COM,     LSDYNA, 2023.2
/COM,     5f463412-bd3e-484b-87e7-cbc0a665e474, wbex
/COM,/COM,     ANSYSMotion, 2023.2
/COM,     20180725-3f81-49eb-9f31-41364844c769, wbex
/COM,
! ****** End   Custom Load Command Snippet ******
*DIM,_wb_ProjectScratch_dir,string,248
_wb_ProjectScratch_dir(1) = 'C:\Users\niaz ahmad\Desktop\kevin\ansys\_ProjectScratch\Scr592C\'
*DIM,_wb_SolverFiles_dir,string,248
_wb_SolverFiles_dir(1) = 'C:\Users\niaz ahmad\Desktop\kevin\ansys\project1_files\dp0\SYS\MECH\'
*DIM,_wb_userfiles_dir,string,248
_wb_userfiles_dir(1) = 'C:\Users\niaz ahmad\Desktop\kevin\ansys\project1_files\user_files\'
/com,--- Data in consistent MKS units. See Solving Units in the help system for more information.
/units,MKS
/nopr
/wb,file,start              !  signify a WB generated input file
/prep7
! Turn off shape checking because checks already performed inside WB mesher.
! See help system for more information.
SHPP,OFF,,NOWARN
/nolist
etcon,set             ! allow ANSYS to choose best KEYOP's for 180x elements, resets any applicable keyopt to MAPDL defaults
/com,*********** Nodes for the whole assembly ***********
nblock,3,,1864
(1i9,3e20.9e3)
        1     2.059983760E-03     4.937567751E-03     0.000000000E+00
        2     2.059983760E-03     7.437567751E-03     0.000000000E+00
        3     2.059983760E-03     9.937567751E-03     0.000000000E+00
        4     2.059983760E-03     1.243756775E-02     0.000000000E+00
        5     2.059983760E-03     1.493756775E-02     0.000000000E+00
        6    -2.544001624E-02     1.493756775E-02     0.000000000E+00
        7    -2.294001624E-02     1.493756775E-02     0.000000000E+00
        8    -2.044001624E-02     1.493756775E-02     0.000000000E+00
        9    -1.794001624E-02     1.493756775E-02     0.000000000E+00
       10    -1.544001624E-02     1.493756775E-02     0.000000000E+00
       11    -1.294001624E-02     1.493756775E-02     0.000000000E+00
       12    -1.044001624E-02     1.493756775E-02     0.000000000E+00
       13    -7.940016240E-03     1.493756775E-02     0.000000000E+00
       14    -5.440016240E-03     1.493756775E-02     0.000000000E+00
       15    -2.940016240E-03     1.493756775E-02     0.000000000E+00
       16    -4.400162399E-04     1.493756775E-02     0.000000000E+00
       17    -2.544001624E-02     1.243756775E-02     0.000000000E+00
       18    -2.294001624E-02     1.243756775E-02     0.000000000E+00
       19    -2.044001624E-02     1.243756775E-02     0.000000000E+00
       20    -1.794001624E-02     1.243756775E-02     0.000000000E+00
! ... 1676 like lines cut
/wb,elem,start            !  set before creation of elements
/com,*********** Elements for Body 1 "Solid" ***********
et,1,186
keyo,1,2,1          ! set full integration on SOLID186
eblock,19,solid,,216
(19i9)
        1        1        1        1        0        0        0        0       20        0        1      181      482      483      484      182      387      386      385
     1082     1672     1673     1083     1087     1527     1525     1086     1081     1530     1528     1526
        1        1        1        1        0        0        0        0       20        0        2      176      181      484      485      187      182      385      384
     1065     1083     1674     1067     1085     1086     1523     1102     1066     1081     1526     1524
        1        1        1        1        0        0        0        0       20        0        3      171      176      485      486      192      187      384      383
     1049     1067     1675     1051     1101     1102     1521     1113     1050     1066     1524     1522
        1        1        1        1        0        0        0        0       20        0        4      166      171      486      487      197      192      383      382
     1033     1051     1676     1035     1112     1113     1519     1124     1034     1050     1522     1520
        1        1        1        1        0        0        0        0       20        0        5      161      166      487      488      202      197      382      381
     1017     1035     1677     1019     1123     1124     1517     1135     1018     1034     1520     1518
        1        1        1        1        0        0        0        0       20        0        6      156      161      488      489      207      202      381      380
     1001     1019     1678     1003     1134     1135     1515     1146     1002     1018     1518     1516
        1        1        1        1        0        0        0        0       20        0        7      151      156      489      490      212      207      380      379
      985     1003     1679      987     1145     1146     1513     1157      986     1002     1516     1514
        1        1        1        1        0        0        0        0       20        0        8      146      151      490      491      217      212      379      378
      969      987     1680      971     1156     1157     1511     1168      970      986     1514     1512
        1        1        1        1        0        0        0        0       20        0        9      141      146      491      492      222      217      378      377
      953      971     1681      955     1167     1168     1509     1179      954      970     1512     1510
        1        1        1        1        0        0        0        0       20        0       10      136      141      492      493      227      222      377      376
      937      955     1682      939     1178     1179     1507     1190      938      954     1510     1508
! ... 413 like lines cut
!Material Id = {FB684B68-BF93-4F11-BBC4-2A91ABFDB13B}
/wb,elem,end               !  done creating elements
/com,*********** Send User Defined Coordinate System(s) ***********
csys,0
toffst,273.15,  ! Temperature offset from absolute zero
/com,*********** Set Reference Temperature ***********
tref,22.
/wb,mat,start              !  starting to send materials
/com,*********** Send Materials ***********
MP,EX,1,40000000000,	! Pa
MP,NUXY,1,0.3,
MP,UVID,1,542451fd-7b77-4f20-88bd-2ed962135ffd

/wb,mat,end                !  done sending materials
!************************* Model Summary ********************
!Solid,	material,	matid,	1
!************************* End Model Summary ********************
! get the diagonal of the bounding box. Needed later for other things
*get,_xmin,node,,mnloc,x
*get,_ymin,node,,mnloc,y
*get,_zmin,node,,mnloc,z
*get,_xmax,node,,mxloc,x
*get,_ymax,node,,mxloc,y
*get,_zmax,node,,mxloc,z
_ASMDIAG=(_xmax-_xmin)*(_xmax-_xmin)+(_ymax-_ymin)*(_ymax-_ymin)+(_zmax-_zmin)*(_zmax-_zmin)
_ASMDIAG=SQRT(_ASMDIAG)
/wb,contact,start          !  starting to send contact
/wb,contact,end            !  done creating contacts
/golist
/wb,load,start             !  starting to send loads
/com,*********** Fixed Supports ***********
CMBLOCK,_FIXEDSU,NODE,       63
(8i10)
       422       423       424       425       426       427       428       429
       430       431       432       433       434       435       436       437
       438       439       440       441       442       443       444       445
       446       447      1599      1600      1601      1602      1603      1604
      1605      1606      1607      1608      1609      1610      1611      1612
      1613      1614      1615      1616      1617      1618      1619      1620
      1621      1622      1623      1624      1625      1626      1627      1628
      1629      1630      1631      1632      1633      1634      1635
cmsel,s,_FIXEDSU
d,all,all
nsel,all
/com,*********** Define Force Using Surface Effect Elements ***********
local,12,0,0.,0.,0.,0.,0.,0.
csys,0
et,2,154
mat,2
eblock,10,,,6
(15i9)
      721        2        2        2       12      386      387      482      483     1527     1530     1672     1528
      722        2        2        2       12      387      388      481      482     1529     1532     1671     1530
      723        2        2        2       12      388      389      480      481     1531     1534     1670     1532
      724        2        2        2       12      389      390      479      480     1533     1536     1669     1534
      725        2        2        2       12      390      391      478      479     1535     1538     1668     1536
      726        2        2        2       12      391      392      477      478     1537     1540     1667     1538
-1
esel,s,type,,2
keyop,2,2,1                ! Apply load in local coordinate system
keyop,2,7,1                ! Use original area so load is constant in large deformation
esel,all
/gst,on,on
fini
*get,_numnode,node,0,count
*get,_numelem,elem,0,count
*get, _MAXELEMNUM, elem, 0, NUM, MAX
*get, _MAXNODENUM, node, 0, NUM, MAX
*get, _MAXELEMTYPE, etyp, 0, NUM, MAX
*get, _MAXREALCONST, rcon, 0, NUM, MAX
/go
/wb,load,end               !  done creating loads
/com,--- Number of total nodes = %_numnode%
/com,--- Number of contact elements = 6
/com,--- Number of spring elements = 0
/com,--- Number of bearing elements = 0
/com,--- Number of solid elements = 216
/com,--- Number of condensed parts = 0
/com,--- Number of total elements = %_numelem%
*get,_wallbsol,active,,time,wall
/com,****************************************************************************
/com,*************************    SOLUTION       ********************************
/com,****************************************************************************
/solu
antype,0                   ! static analysis
_thickRatio=  0     ! Ratio of thick parts in the model
eqsl,sparse,,,,,1
cntr,print,1               ! print out contact info and also make no initial contact an error
cncheck,dmp		!	Enable program controlled contact splitting for distributed memory parallel run
dmpoption,emat,no             ! Don't combine emat file for DANSYS
dmpoption,esav,no             ! Don't combine esav file for DANSYS
nldiag,cont,iter           ! print out contact info each equilibrium iteration
rescontrol,,none                 ! Do not keep any restart files
/com,****************************************************
/com,******************* SOLVE FOR LS 1 OF 1 ****************
esel,s,type,,2
nsle
sfe,all,1,pres,1,100000000.000008
sfe,all,2,pres,1,0.
sfe,all,3,pres,1,0.
nsel,all
esel,all
/nopr
/gopr
nsub,1,1,1
time,1.
outres,erase
outres,all,none
outres,nsol,all,
outres,rsol,all
outres,eangl,all
outres,etmp,all
outres,veng,all
outres,strs,all,
outres,epel,all,
outres,eppl,all,
outres,cont,all,
! *********** WB SOLVE COMMAND ***********
! check interactive state
*get,ANSINTER_,active,,int
*if,ANSINTER_,ne,0,then
/eof
*endif
solve
/com *************** Write FE CONNECTORS ********* 
CEWRITE,file,ce,,INTE
/com,****************************************************
/com,*************** FINISHED SOLVE FOR LS 1 *************
*get,_wallasol,active,,time,wall
/nopr
*get,_numnode,node,0,count
*get,_numelem,elem,0,count
*get, _MAXELEMNUM, elem, 0, NUM, MAX
*get, _MAXNODENUM, node, 0, NUM, MAX,,,INTERNAL
*get, _MAXELEMTYPE, etyp, 0, NUM, MAX
*get, _MAXREALCONST, rcon, 0, NUM, MAX
*get,_NSOLTHREADS,active,0,ntfs
*get,_NSOLPROCESSES,active,0,npfs
/gopr
/post1
xmlo,ENCODING,ISO-8859-1
xmlo,parm
/xml,parm,xml
fini
/gopr
*get,_walldone,active,,time,wall
_preptime=(_wallbsol-_wallstrt)*3600
_solvtime=(_wallasol-_wallbsol)*3600
_posttime=(_walldone-_wallasol)*3600
_totaltim=(_walldone-_wallstrt)*3600
*get,_dlbratio,active,0,solu,dlbr
*get,_combtime,active,0,solu,comb
*get,_ssmode,active,0,solu,ssmm
*get,_ndofs,active,0,solu,ndof
*get,_sol_end_time,active,0,set,time
*if,_sol_end_time,eq,1.000000,then
/fclean				!clean distributed files
*endif
/com,--- Total number of nodes = %_numnode%
/com,--- Total number of elements = %_numelem%
/com,--- Element load balance ratio = %_dlbratio%
/com,--- Time to combine distributed files = %_combtime%
/com,--- Sparse memory mode = %_ssmode%
/com,--- Number of DOF = %_ndofs%
/wb,file,end               ! done with WB generated input
